*DSSAT Cropping System Model Ver. 4.8.0.027   -release    JUL 20, 2022; 15:34:57

 Unit  Filename
  501  OPCLR
   21  FILEIO
  120  WARNING.OUT
  115  ERRORO
   15  ERRORX
